Version 4
SHEET 1 1076 680
WIRE -192 -1008 -192 -1056
WIRE 96 -960 48 -960
WIRE 192 -960 160 -960
WIRE -624 -944 -624 -960
WIRE 48 -912 48 -960
WIRE -624 -848 -624 -864
WIRE -496 -848 -624 -848
WIRE -400 -848 -496 -848
WIRE -80 -848 -400 -848
WIRE 192 -848 192 -960
WIRE 192 -848 176 -848
WIRE 208 -848 192 -848
WIRE 304 -848 288 -848
WIRE 352 -848 304 -848
WIRE 512 -848 352 -848
WIRE 592 -848 512 -848
WIRE -496 -752 -496 -848
WIRE -400 -752 -400 -848
WIRE -384 -752 -400 -752
WIRE -192 -752 -192 -944
WIRE -192 -752 -304 -752
WIRE -80 -752 -192 -752
WIRE 224 -752 176 -752
WIRE 304 -752 304 -848
WIRE 304 -752 224 -752
WIRE -496 -656 -496 -672
WIRE -80 -656 -496 -656
WIRE 224 -656 224 -752
WIRE 224 -656 176 -656
WIRE 352 -656 352 -848
WIRE 224 -640 224 -656
WIRE 512 -608 512 -848
WIRE 592 -608 512 -608
WIRE 512 -592 512 -608
WIRE 592 -592 592 -608
WIRE -80 -560 -192 -560
WIRE 224 -560 224 -576
WIRE 224 -560 176 -560
WIRE 352 -560 352 -576
WIRE 352 -560 224 -560
WIRE 352 -544 352 -560
WIRE -192 -496 -192 -560
WIRE 512 -496 512 -528
WIRE 592 -496 592 -512
WIRE 592 -496 512 -496
WIRE -192 -288 -192 -416
WIRE 48 -288 48 -496
WIRE 48 -288 -192 -288
WIRE 352 -288 352 -464
WIRE 352 -288 48 -288
WIRE 512 -288 512 -496
WIRE 512 -288 352 -288
FLAG -624 -960 0
FLAG -624 -848 IN
FLAG 592 -848 0
FLAG 512 -288 V-
FLAG -192 -1056 0
SYMBOL ind 192 -832 R270
WINDOW 0 32 56 VTop 2
WINDOW 3 5 56 VBottom 2
SYMATTR InstName L1
SYMATTR Value 22µ
SYMBOL res 336 -672 R0
SYMATTR InstName R1
SYMATTR Value 82k
SYMBOL res 336 -560 R0
SYMATTR InstName R2
SYMATTR Value 15k
SYMBOL res -176 -400 R180
WINDOW 0 36 76 Left 2
WINDOW 3 36 40 Left 2
SYMATTR InstName R3
SYMATTR Value 215K
SYMBOL cap 496 -592 R0
SYMATTR InstName C1
SYMATTR Value 22µ
SYMBOL res -512 -768 R0
SYMATTR InstName R4
SYMATTR Value 100K
SYMBOL voltage -624 -848 R180
WINDOW 123 0 0 Left 0
WINDOW 39 0 0 Left 0
SYMATTR InstName V1
SYMATTR Value 5
SYMBOL cap 208 -640 R0
WINDOW 0 29 14 Left 2
WINDOW 3 31 50 Left 2
SYMATTR InstName C2
SYMATTR Value 15p
SYMBOL PowerProducts\\LT3973 48 -704 R0
SYMATTR InstName U2
SYMBOL cap 160 -976 R90
WINDOW 0 0 32 VBottom 2
WINDOW 3 32 32 VTop 2
SYMATTR InstName C3
SYMATTR Value .47µ
SYMBOL res 576 -608 R0
SYMATTR InstName Rload1
SYMATTR Value 10
SYMBOL res -288 -768 R90
WINDOW 0 0 56 VBottom 2
WINDOW 3 32 56 VTop 2
SYMATTR InstName R5
SYMATTR Value 10K
SYMBOL cap -208 -1008 R0
SYMATTR InstName C4
SYMATTR Value .22µ
TEXT -176 -1128 Left 2 !.tran 3m startup
